
#======================================================================
# CRYSTAL DATA
#----------------------------------------------------------------------
data_VESTA_phase_1

_chemical_name_common                  'Silicon unit cell (Diamond structure)'
_cell_length_a                         5.090625
_cell_length_b                         5.090625
_cell_length_c                         5.090625
_cell_angle_alpha                      90.000000
_cell_angle_beta                       90.000000
_cell_angle_gamma                      90.000000
_cell_volume                           1.000000
_space_group_name_H-M_alt              'P 1'
_space_group_IT_number                 1

loop_
_space_group_symop_operation_xyz
   'x, y, z'

loop_
   _atom_site_label
   _atom_site_occupancy
   _atom_site_fract_x
   _atom_site_fract_y
   _atom_site_fract_z
   _atom_site_adp_type
   _atom_site_U_iso_or_equiv
   _atom_site_type_symbol
   Si1        1.0     0.100000     0.100000     0.100000    Uiso  ? Si
   Si2        1.0     0.366667     0.366667     0.366667    Uiso  ? Si
   Si3        1.0     0.100000     0.633333     0.633333    Uiso  ? Si
   Si4        1.0     0.366667     0.900000     0.900000    Uiso  ? Si
   Si5        1.0     0.633333     0.100000     0.633333    Uiso  ? Si
   Si6        1.0     0.900000     0.366667     0.900000    Uiso  ? Si
   Si7        1.0     0.633333     0.633333     0.100000    Uiso  ? Si
   Si8        1.0     0.900000     0.900000     0.366667    Uiso  ? Si
